63
 energy: -114.332035955013 gnorm: 0.000076917353 xtb: 6.4.1 (afa7bdf)
C        -1.84698538288595    6.27144360430264    0.30213773158270
C        -2.34901914045858    4.98493189465774    0.20834892400803
C        -1.43735149779496    3.94325453575411    0.13771180033258
C        -0.05234250114304    4.18906411407672    0.15974976394713
C         0.44246027493340    5.48028015534284    0.25538842559903
C        -0.47423345448287    6.51506544338219    0.32513327985802
C        -1.58966003929970    2.50629778043401    0.03595343894370
N        -0.36229270912664    1.92551605114738   -0.00056933817479
C         0.58794769719467    2.89205783573442    0.07883164449019
Cu       -0.02163275115100    0.00648124714304    0.02179131717743
N        -1.94224978223258   -0.33612934718003   -0.05491744107188
C        -2.91110284894468    0.61633551170726   -0.05554752368774
C        -4.21033230633725   -0.02279998560372   -0.08028769698299
C        -3.96585070592561   -1.40849372041875   -0.08020596417965
C        -2.52654637423562   -1.56335599589975   -0.04870115446978
C        -5.01141209038267   -2.31863532876078   -0.10138283970632
C        -6.29996540498218   -1.81458755043720   -0.12756525329922
C        -6.54240738900289   -0.44114898866275   -0.12931977958269
C        -5.50441017817557    0.47383487778377   -0.10485646232562
N        -2.76609043076119    1.92236655877023   -0.01585159433639
N        -1.94160314408412   -2.74037285252358   -0.01272717994306
C        -0.63552630025591   -2.88639585426620    0.03311775857971
N         0.31623161250183   -1.91644877395834    0.06222410890938
C         1.54365713182890   -2.49925436565443    0.06583065000264
C         1.38946135119957   -3.93899590590252    0.06540013206437
C         0.00406916451152   -4.18521407937159    0.04967974904858
C        -0.49161062942452   -5.47997938926205    0.04484745427756
C         0.42411418325431   -6.51732303386765    0.06213430556265
C         1.79723676762632   -6.27341380415474    0.08044341739735
C         2.30017594299638   -4.98417641929522    0.08156648464375
N         2.72051084879448   -1.91348272904243    0.04816289179016
C         2.86501713820432   -0.60727052685504    0.02835136465756
N         1.89725849520778    0.34482162729432    0.07939740884137
C         2.47881926833330    1.57073093269075    0.03147300079894
C         3.91746635078737    1.41702398232342   -0.04105618356214
C         4.16291246925126    0.03180747654546   -0.04650098174232
C         5.45545933486046   -0.46413162110204   -0.11450881348665
C         6.49136503920240    0.45162247504931   -0.17974341331871
C         6.24780317225177    1.82456246041028   -0.17780993137169
C         4.96009515541720    2.32772685134705   -0.10966033625485
N         1.89468116283989    2.74805330002850    0.06464877475368
H         3.35970459659827   -4.78600905244616    0.09422282881919
H        -1.55449544508789   -5.65894574971528    0.03072035273572
H        -5.68231013500922    1.53697597873855   -0.10472380455991
H        -4.81438364138026   -3.37847031329264   -0.09974781420637
H         4.76193958667171    3.38734843210291   -0.10862523346330
H         5.63450295937146   -1.52708284960612   -0.11790494104463
H         1.50529305917882    5.65922154251822    0.27338381899916
H        -3.40852206809876    4.78683198222603    0.19210169333665
H         2.47918682120417   -7.10997290806071    0.09347769279227
H         0.07176720018749   -7.53757203060352    0.06215054894003
H        -7.13697712368391   -2.49580342227913   -0.14757836720795
H         7.50992231289454    0.09873038487228   -0.23502570142198
H         7.08272452103000    2.50652290104879   -0.23133638004491
H        -7.56207959484667   -0.08771614519802   -0.14993226492914
H        -0.12225349636806    7.53270402656626    0.39962168881771
H        -2.52972011890479    7.10542777572128    0.36031089107552
O        -0.18447446161740    0.14587319314959    2.54693221977957
H         0.63888797868757    0.22565451282339    3.03978321211071
H        -0.71427876862438   -0.51863975178159    2.99968611403108
O         0.20377887809999   -0.03437191479001   -2.50159442483598
H        -0.10253495535502    0.73899801074116   -2.98664038254621
H        -0.13264660506419   -0.80551904644449   -2.97000468695574
